Version 4
SHEET 1 2028 5388
WIRE -16 -48 -144 -48
WIRE 144 -48 -16 -48
WIRE 208 -48 144 -48
WIRE 144 -16 144 -48
WIRE -144 32 -144 -48
WIRE -16 32 -16 -48
WIRE 144 64 144 48
WIRE 208 128 208 -48
WIRE -16 144 -16 112
WIRE 96 144 -16 144
WIRE 176 144 96 144
WIRE -320 160 -320 96
WIRE 336 160 240 160
WIRE 448 160 336 160
WIRE 464 160 448 160
WIRE -144 176 -144 112
WIRE 96 176 -144 176
WIRE 128 176 96 176
WIRE 176 176 128 176
WIRE -144 240 -144 176
WIRE -16 240 -16 144
WIRE 208 240 208 192
WIRE 464 272 464 240
WIRE -320 288 -320 240
WIRE 128 304 128 176
WIRE 176 304 128 304
WIRE 336 304 336 160
WIRE 336 304 256 304
WIRE -144 352 -144 320
WIRE -16 352 -16 320
FLAG 208 240 0
FLAG 144 64 0
FLAG -320 288 0
FLAG -1952 1280 +3V
FLAG -320 96 Vcc
FLAG 208 -48 Vcc
FLAG -16 352 0
FLAG -144 352 0
FLAG 96 144 Vadc
FLAG 96 176 Vref
FLAG 464 272 0
FLAG 448 160 Output
SYMBOL cap 128 -16 R0
SYMATTR InstName C1
SYMATTR Value 0.1µ
SYMATTR SpiceLine V=50
SYMBOL res -32 224 R0
SYMATTR InstName R15
SYMATTR Value 100k
SYMATTR SpiceLine tol=0.1
SYMBOL voltage -320 144 R0
WINDOW 123 0 0 Left 0
WINDOW 39 0 0 Left 0
SYMATTR InstName V1
SYMATTR Value 3V
SYMBOL res -160 16 R0
SYMATTR InstName R12
SYMATTR Value 42.2k
SYMATTR SpiceLine tol=1
SYMBOL res -160 224 R0
SYMATTR InstName R13
SYMATTR Value 200k
SYMATTR SpiceLine tol=1
SYMBOL res 448 144 R0
SYMATTR InstName R5
SYMATTR Value 500k
SYMATTR SpiceLine tol=1
SYMBOL Misc\\xvaristor -32 16 R0
SYMATTR InstName U1
SYMATTR Value B57452V5104J062
SYMBOL Comparators\\LT1716 208 160 R0
SYMATTR InstName U3
SYMBOL res 272 288 R90
WINDOW 0 0 56 VBottom 2
WINDOW 3 32 56 VTop 2
SYMATTR InstName R4
SYMATTR Value 220k
SYMATTR SpiceLine tol=1
TEXT 888 64 Left 2 !.SUBCKT B57452V5104J062 1 2  PARAMS: TOL=0\nX1 1 2 NTC Params: \n+ B0=-16.4710190481099\n+ B1=5162.00497681668\n+ B2=63919.4570966831\n+ B3=-53047574.22\n+ B4=3478532052.4\n+ R25=100000\n+ T={1+TOL/100} \n+ CTH=0.035 GTH0=0.00246 GTH1=0 TK=273.15\n.ENDS
TEXT 320 336 Left 2 !.dc TEMP -40 150 1
TEXT 320 368 Left 2 !.include ntc_20130313.lib
